*SPEF "ieee 1481-1999"
*DESIGN "SSS"
*DATE "18:27:16 Thursday June 25, 2026"
*VENDOR "The OpenROAD Project"
*PROGRAM "OpenROAD"
*VERSION "edf00dff99f6c40d67a30c0e22a8191c5d2ed9d6"
*DESIGN_FLOW "NAME_SCOPE LOCAL" "PIN_CAP NONE"
*DIVIDER /
*DELIMITER :
*BUS_DELIMITER []
*T_UNIT 1 NS
*C_UNIT 1 PF
*R_UNIT 1 OHM
*L_UNIT 1 HENRY

*NAME_MAP
*1 AN[0]
*2 AN[1]
*3 AN[2]
*4 AN[3]
*5 AN[4]
*6 AN[5]
*7 AN[6]
*8 AN[7]
*9 BTNC
*10 BTND
*11 BTNL
*12 BTNR
*13 BTNU
*14 CA
*15 CB
*16 CC
*17 CD
*18 CE
*19 CF
*20 CG
*21 CLK
*22 CPU_RESETN
*23 net77
*24 net76
*25 LED16_G
*26 LED16_R
*27 LED[0]
*28 LED[10]
*29 LED[11]
*30 LED[12]
*31 LED[13]
*32 LED[14]
*33 LED[15]
*34 LED[1]
*35 LED[2]
*36 LED[3]
*37 LED[4]
*38 LED[5]
*39 LED[6]
*40 LED[7]
*41 LED[8]
*42 LED[9]
*43 SW[0]
*44 SW[10]
*45 SW[11]
*46 SW[12]
*47 SW[13]
*48 SW[14]
*49 SW[15]
*50 SW[1]
*51 SW[2]
*52 SW[3]
*53 SW[4]
*54 SW[5]
*55 SW[6]
*56 SW[7]
*57 SW[8]
*58 SW[9]
*61 CLK2_counter\[0\]
*62 CLK2_counter\[10\]
*63 CLK2_counter\[11\]
*64 CLK2_counter\[12\]
*65 CLK2_counter\[13\]
*66 CLK2_counter\[14\]
*67 CLK2_counter\[15\]
*68 CLK2_counter\[16\]
*69 CLK2_counter\[17\]
*70 CLK2_counter\[18\]
*71 CLK2_counter\[19\]
*72 CLK2_counter\[1\]
*73 CLK2_counter\[20\]
*74 CLK2_counter\[21\]
*75 CLK2_counter\[22\]
*76 CLK2_counter\[23\]
*77 CLK2_counter\[24\]
*78 CLK2_counter\[25\]
*79 CLK2_counter\[26\]
*80 CLK2_counter\[27\]
*81 CLK2_counter\[28\]
*82 CLK2_counter\[29\]
*83 CLK2_counter\[2\]
*84 CLK2_counter\[30\]
*85 CLK2_counter\[31\]
*86 CLK2_counter\[3\]
*87 CLK2_counter\[4\]
*88 CLK2_counter\[5\]
*89 CLK2_counter\[6\]
*90 CLK2_counter\[7\]
*91 CLK2_counter\[8\]
*92 CLK2_counter\[9\]
*93 CLK_counter\[0\]
*94 CLK_counter\[10\]
*95 CLK_counter\[11\]
*96 CLK_counter\[12\]
*97 CLK_counter\[13\]
*98 CLK_counter\[14\]
*99 CLK_counter\[15\]
*100 CLK_counter\[16\]
*101 CLK_counter\[17\]
*102 CLK_counter\[18\]
*103 CLK_counter\[19\]
*104 CLK_counter\[1\]
*105 CLK_counter\[20\]
*106 CLK_counter\[21\]
*107 CLK_counter\[22\]
*108 CLK_counter\[23\]
*109 CLK_counter\[24\]
*110 CLK_counter\[25\]
*111 CLK_counter\[26\]
*112 CLK_counter\[27\]
*113 CLK_counter\[28\]
*114 CLK_counter\[29\]
*115 CLK_counter\[2\]
*116 CLK_counter\[30\]
*117 CLK_counter\[31\]
*118 CLK_counter\[3\]
*119 CLK_counter\[4\]
*120 CLK_counter\[5\]
*121 CLK_counter\[6\]
*122 CLK_counter\[7\]
*123 CLK_counter\[8\]
*124 CLK_counter\[9\]
*125 _000_
*126 _001_
*127 _002_
*128 _003_
*129 _004_
*130 _005_
*131 _006_
*132 _007_
*133 _008_
*134 _009_
*135 _010_
*136 _011_
*137 _012_
*138 _013_
*139 _014_
*140 _015_
*141 _016_
*142 _017_
*143 _018_
*144 _019_
*145 _020_
*146 _021_
*147 _022_
*148 _023_
*149 _024_
*150 _025_
*151 _026_
*152 _027_
*153 _028_
*154 _029_
*155 _030_
*156 _031_
*157 _032_
*158 _033_
*159 _034_
*160 _035_
*161 _036_
*162 _037_
*163 _038_
*164 _039_
*165 _040_
*166 _041_
*167 _042_
*168 _043_
*169 _044_
*170 _045_
*171 _046_
*172 _047_
*173 _048_
*174 _049_
*175 _050_
*176 _051_
*177 _052_
*178 _053_
*179 _054_
*180 _055_
*181 _056_
*182 _057_
*183 _058_
*184 _059_
*185 _060_
*186 _061_
*187 _062_
*188 _063_
*189 _064_
*190 _065_
*191 _066_
*192 _067_
*193 _068_
*194 _069_
*195 _070_
*196 _071_
*197 _072_
*198 _073_
*199 _074_
*200 _075_
*201 _076_
*202 _077_
*203 _078_
*204 _079_
*205 _080_
*206 _081_
*207 _082_
*208 _083_
*209 _084_
*210 _085_
*211 _086_
*212 _087_
*213 _088_
*214 _089_
*215 _090_
*216 _091_
*217 _092_
*218 _093_
*219 _094_
*220 _095_
*221 _096_
*222 _097_
*223 _098_
*224 _099_
*225 _100_
*226 _101_
*227 _102_
*228 _103_
*229 _104_
*230 _105_
*231 _106_
*232 _107_
*233 _108_
*234 _109_
*235 _110_
*236 _111_
*237 _112_
*238 _113_
*239 _114_
*240 _115_
*241 _116_
*242 _117_
*243 _118_
*244 _119_
*245 _120_
*246 _121_
*247 _122_
*248 _123_
*249 _124_
*250 _125_
*251 _126_
*252 _127_
*253 _128_
*254 _129_
*255 _130_
*256 _131_
*257 _132_
*258 _133_
*259 _134_
*260 _135_
*261 _136_
*262 _137_
*263 _138_
*264 _139_
*265 _140_
*266 _141_
*267 _142_
*268 _143_
*269 _144_
*270 _145_
*271 _146_
*272 _147_
*273 _148_
*274 _149_
*275 _150_
*276 _151_
*277 _152_
*278 _153_
*279 _154_
*280 _155_
*281 _156_
*282 _157_
*283 _158_
*284 _159_
*285 _160_
*286 _161_
*287 _162_
*288 _163_
*289 _164_
*290 _165_
*291 _166_
*292 _167_
*293 _168_
*294 _169_
*295 _170_
*296 _171_
*297 _172_
*298 _173_
*299 _174_
*300 _175_
*301 _176_
*302 _177_
*303 _178_
*304 _179_
*305 _180_
*306 _181_
*307 _182_
*308 _183_
*309 _184_
*310 _185_
*311 _186_
*312 _187_
*313 _188_
*314 _189_
*315 _190_
*316 _191_
*317 _192_
*318 _193_
*319 _194_
*320 _195_
*321 _196_
*322 _197_
*323 _198_
*324 _199_
*325 _200_
*326 _201_
*327 _202_
*328 _203_
*329 _204_
*330 _205_
*331 _206_
*332 _207_
*333 _208_
*334 _209_
*335 _210_
*336 _211_
*337 _212_
*338 _213_
*339 _214_
*340 _215_
*341 _216_
*342 _217_
*343 _218_
*344 _219_
*345 _220_
*346 _221_
*347 _222_
*348 _223_
*349 _224_
*350 _225_
*351 _226_
*352 _227_
*353 _228_
*354 _229_
*355 _230_
*356 _231_
*357 _232_
*358 _233_
*359 _234_
*360 _235_
*361 _236_
*362 _237_
*363 _238_
*364 _239_
*365 _240_
*366 _241_
*367 _242_
*368 _243_
*369 _244_
*370 _245_
*371 _246_
*372 _247_
*373 _248_
*374 _249_
*375 _250_
*376 _251_
*377 _252_
*378 _253_
*379 _254_
*380 _255_
*381 _256_
*382 _257_
*383 _258_
*384 _259_
*385 _260_
*386 _261_
*387 _262_
*388 _263_
*389 _264_
*390 _265_
*391 _266_
*392 _267_
*393 _268_
*394 _269_
*395 _270_
*396 _271_
*397 _272_
*398 _273_
*399 _274_
*400 _275_
*401 _276_
*402 _277_
*403 _278_
*404 _279_
*405 _280_
*406 _281_
*407 _282_
*408 _283_
*409 _284_
*410 _285_
*411 _286_
*412 _287_
*413 _288_
*414 _289_
*415 _290_
*416 _291_
*417 _292_
*418 _293_
*419 _294_
*420 _295_
*421 _296_
*422 _297_
*423 _298_
*424 _299_
*425 _300_
*426 _301_
*427 _302_
*428 _303_
*429 _304_
*430 _305_
*431 _306_
*432 _307_
*433 _308_
*434 _309_
*435 _310_
*436 _311_
*437 _312_
*438 _313_
*439 _314_
*440 _315_
*441 _316_
*442 _317_
*443 _318_
*444 _319_
*445 _320_
*446 _321_
*447 _322_
*448 _323_
*449 _324_
*450 _325_
*451 _326_
*452 _327_
*453 _328_
*454 _329_
*455 _330_
*456 _331_
*457 _332_
*458 _333_
*459 _334_
*460 _335_
*461 _336_
*462 _337_
*463 _338_
*464 _339_
*465 _340_
*466 _341_
*467 _342_
*468 _343_
*469 _344_
*470 _345_
*471 _346_
*472 _347_
*473 _348_
*474 _349_
*475 attempt_count\[0\]
*476 attempt_count\[1\]
*477 attempt_count\[2\]
*478 attempt_count\[3\]
*479 attempt_count\[4\]
*480 clknet_0_CLK
*481 clknet_3_0__leaf_CLK
*482 clknet_3_1__leaf_CLK
*483 clknet_3_2__leaf_CLK
*484 clknet_3_3__leaf_CLK
*485 clknet_3_4__leaf_CLK
*486 clknet_3_5__leaf_CLK
*487 clknet_3_6__leaf_CLK
*488 clknet_3_7__leaf_CLK
*489 net1
*490 net10
*491 net11
*492 net12
*493 net13
*494 net14
*495 net15
*496 net16
*497 net17
*498 net18
*499 net19
*500 net2
*501 net20
*502 net21
*503 net22
*504 net23
*505 net24
*506 net25
*507 net26
*508 net27
*509 net28
*510 net29
*511 net3
*512 net30
*513 net31
*514 net32
*515 net33
*516 net34
*517 net35
*518 net36
*519 net37
*520 net38
*521 net39
*522 net4
*523 net40
*524 net41
*525 net42
*526 net43
*527 net44
*528 net45
*529 net46
*530 net47
*531 net48
*532 net49
*533 net5
*534 net50
*535 net51
*536 net52
*537 net53
*538 net54
*539 net55
*540 net56
*541 net57
*542 net58
*543 net59
*544 net6
*545 net60
*546 net61
*547 net62
*548 net63
*549 net64
*550 net65
*551 net66
*552 net67
*553 net68
*554 net69
*555 net7
*556 net70
*557 net71
*558 net72
*559 net73
*560 net74
*561 net75
*562 net78
*563 net79
*564 net8
*565 net80
*566 net81
*567 net82
*568 net83
*569 net84
*570 net85
*571 net86
*572 net87
*573 net88
*574 net89
*575 net9
*576 net90
*577 net91
*578 net92
*579 net93
*580 net94
*581 net95
*582 net96
*583 net97
*584 net98
*585 next_state\[0\]
*586 next_state\[1\]
*587 next_state\[2\]
*588 password\[0\]
*589 password\[1\]
*590 password\[2\]
*591 password\[3\]
*592 password\[4\]
*593 password\[5\]
*594 password\[6\]
*595 password\[7\]
*596 state\[0\]
*597 state\[1\]
*598 state\[2\]
*599 FILLER_0_105
*600 FILLER_0_113
*601 FILLER_0_119
*602 FILLER_0_126
*603 FILLER_0_133
*604 FILLER_0_141
*605 FILLER_0_146
*606 FILLER_0_15
*607 FILLER_0_153
*608 FILLER_0_160
*609 FILLER_0_167
*610 FILLER_0_169
*611 FILLER_0_174
*612 FILLER_0_181
*613 FILLER_0_188
*614 FILLER_0_195
*615 FILLER_0_197
*616 FILLER_0_209
*617 FILLER_0_27
*618 FILLER_0_29
*619 FILLER_0_3
*620 FILLER_0_41
*621 FILLER_0_53
*622 FILLER_0_57
*623 FILLER_0_69
*624 FILLER_0_77
*625 FILLER_0_85
*626 FILLER_0_91
*627 FILLER_0_98
*628 FILLER_10_110
*629 FILLER_10_130
*630 FILLER_10_141
*631 FILLER_10_172
*632 FILLER_10_182
*633 FILLER_10_193
*634 FILLER_10_197
*635 FILLER_10_209
*636 FILLER_10_27
*637 FILLER_10_43
*638 FILLER_10_55
*639 FILLER_10_66
*640 FILLER_10_85
*641 FILLER_10_96
*642 FILLER_11_106
*643 FILLER_11_138
*644 FILLER_11_164
*645 FILLER_11_180
*646 FILLER_11_191
*647 FILLER_11_3
*648 FILLER_11_51
*649 FILLER_11_55
*650 FILLER_11_57
*651 FILLER_12_11
*652 FILLER_12_111
*653 FILLER_12_130
*654 FILLER_12_138
*655 FILLER_12_141
*656 FILLER_12_149
*657 FILLER_12_170
*658 FILLER_12_178
*659 FILLER_12_182
*660 FILLER_12_194
*661 FILLER_12_26
*662 FILLER_12_29
*663 FILLER_12_3
*664 FILLER_12_66
*665 FILLER_12_83
*666 FILLER_12_85
*667 FILLER_12_93
*668 FILLER_13_104
*669 FILLER_13_108
*670 FILLER_13_113
*671 FILLER_13_122
*672 FILLER_13_134
*673 FILLER_13_138
*674 FILLER_13_144
*675 FILLER_13_152
*676 FILLER_13_197
*677 FILLER_13_207
*678 FILLER_13_217
*679 FILLER_13_37
*680 FILLER_13_45
*681 FILLER_13_54
*682 FILLER_13_57
*683 FILLER_13_65
*684 FILLER_13_71
*685 FILLER_13_75
*686 FILLER_13_87
*687 FILLER_13_98
*688 FILLER_14_112
*689 FILLER_14_124
*690 FILLER_14_128
*691 FILLER_14_138
*692 FILLER_14_144
*693 FILLER_14_15
*694 FILLER_14_156
*695 FILLER_14_168
*696 FILLER_14_183
*697 FILLER_14_195
*698 FILLER_14_200
*699 FILLER_14_208
*700 FILLER_14_216
*701 FILLER_14_27
*702 FILLER_14_29
*703 FILLER_14_3
*704 FILLER_14_35
*705 FILLER_14_59
*706 FILLER_14_83
*707 FILLER_14_90
*708 FILLER_15_100
*709 FILLER_15_110
*710 FILLER_15_117
*711 FILLER_15_141
*712 FILLER_15_147
*713 FILLER_15_169
*714 FILLER_15_195
*715 FILLER_15_211
*716 FILLER_15_22
*717 FILLER_15_62
*718 FILLER_15_7
*719 FILLER_16_120
*720 FILLER_16_137
*721 FILLER_16_146
*722 FILLER_16_173
*723 FILLER_16_185
*724 FILLER_16_194
*725 FILLER_16_206
*726 FILLER_16_218
*727 FILLER_16_32
*728 FILLER_16_40
*729 FILLER_16_66
*730 FILLER_16_78
*731 FILLER_16_85
*732 FILLER_16_93
*733 FILLER_17_110
*734 FILLER_17_113
*735 FILLER_17_127
*736 FILLER_17_144
*737 FILLER_17_173
*738 FILLER_17_193
*739 FILLER_17_201
*740 FILLER_17_33
*741 FILLER_17_45
*742 FILLER_17_53
*743 FILLER_17_57
*744 FILLER_17_69
*745 FILLER_17_7
*746 FILLER_17_81
*747 FILLER_17_93
*748 FILLER_17_99
*749 FILLER_18_100
*750 FILLER_18_123
*751 FILLER_18_148
*752 FILLER_18_197
*753 FILLER_18_205
*754 FILLER_18_210
*755 FILLER_18_24
*756 FILLER_18_29
*757 FILLER_18_3
*758 FILLER_18_37
*759 FILLER_18_42
*760 FILLER_18_54
*761 FILLER_18_62
*762 FILLER_18_81
*763 FILLER_18_88
*764 FILLER_18_9
*765 FILLER_19_108
*766 FILLER_19_113
*767 FILLER_19_125
*768 FILLER_19_137
*769 FILLER_19_145
*770 FILLER_19_169
*771 FILLER_19_177
*772 FILLER_19_19
*773 FILLER_19_218
*774 FILLER_19_31
*775 FILLER_19_7
*776 FILLER_19_89
*777 FILLER_19_97
*778 FILLER_1_105
*779 FILLER_1_111
*780 FILLER_1_122
*781 FILLER_1_128
*782 FILLER_1_169
*783 FILLER_1_185
*784 FILLER_1_189
*785 FILLER_1_220
*786 FILLER_1_3
*787 FILLER_1_49
*788 FILLER_1_55
*789 FILLER_1_77
*790 FILLER_1_95
*791 FILLER_20_121
*792 FILLER_20_138
*793 FILLER_20_148
*794 FILLER_20_156
*795 FILLER_20_168
*796 FILLER_20_180
*797 FILLER_20_192
*798 FILLER_20_197
*799 FILLER_20_209
*800 FILLER_20_29
*801 FILLER_20_40
*802 FILLER_20_44
*803 FILLER_20_53
*804 FILLER_20_65
*805 FILLER_20_83
*806 FILLER_20_85
*807 FILLER_21_113
*808 FILLER_21_119
*809 FILLER_21_127
*810 FILLER_21_151
*811 FILLER_21_163
*812 FILLER_21_167
*813 FILLER_21_189
*814 FILLER_21_201
*815 FILLER_21_3
*816 FILLER_21_50
*817 FILLER_21_68
*818 FILLER_22_106
*819 FILLER_22_11
*820 FILLER_22_112
*821 FILLER_22_139
*822 FILLER_22_149
*823 FILLER_22_157
*824 FILLER_22_187
*825 FILLER_22_195
*826 FILLER_22_197
*827 FILLER_22_209
*828 FILLER_22_3
*829 FILLER_22_57
*830 FILLER_22_73
*831 FILLER_22_81
*832 FILLER_22_94
*833 FILLER_23_101
*834 FILLER_23_109
*835 FILLER_23_113
*836 FILLER_23_125
*837 FILLER_23_133
*838 FILLER_23_143
*839 FILLER_23_147
*840 FILLER_23_15
*841 FILLER_23_154
*842 FILLER_23_176
*843 FILLER_23_199
*844 FILLER_23_211
*845 FILLER_23_219
*846 FILLER_23_27
*847 FILLER_23_3
*848 FILLER_23_37
*849 FILLER_23_49
*850 FILLER_23_55
*851 FILLER_24_105
*852 FILLER_24_117
*853 FILLER_24_129
*854 FILLER_24_139
*855 FILLER_24_15
*856 FILLER_24_171
*857 FILLER_24_184
*858 FILLER_24_197
*859 FILLER_24_209
*860 FILLER_24_217
*861 FILLER_24_27
*862 FILLER_24_29
*863 FILLER_24_3
*864 FILLER_24_37
*865 FILLER_24_80
*866 FILLER_25_113
*867 FILLER_25_121
*868 FILLER_25_132
*869 FILLER_25_174
*870 FILLER_25_186
*871 FILLER_25_198
*872 FILLER_25_210
*873 FILLER_25_216
*874 FILLER_25_40
*875 FILLER_25_48
*876 FILLER_25_54
*877 FILLER_25_65
*878 FILLER_25_89
*879 FILLER_26_137
*880 FILLER_26_161
*881 FILLER_26_169
*882 FILLER_26_190
*883 FILLER_26_197
*884 FILLER_26_209
*885 FILLER_26_29
*886 FILLER_26_50
*887 FILLER_26_58
*888 FILLER_26_62
*889 FILLER_26_77
*890 FILLER_26_83
*891 FILLER_26_85
*892 FILLER_27_121
*893 FILLER_27_127
*894 FILLER_27_141
*895 FILLER_27_153
*896 FILLER_27_165
*897 FILLER_27_181
*898 FILLER_27_203
*899 FILLER_27_215
*900 FILLER_27_3
*901 FILLER_27_38
*902 FILLER_27_50
*903 FILLER_27_57
*904 FILLER_27_69
*905 FILLER_27_91
*906 FILLER_28_104
*907 FILLER_28_117
*908 FILLER_28_129
*909 FILLER_28_137
*910 FILLER_28_141
*911 FILLER_28_147
*912 FILLER_28_15
*913 FILLER_28_154
*914 FILLER_28_166
*915 FILLER_28_19
*916 FILLER_28_197
*917 FILLER_28_209
*918 FILLER_28_26
*919 FILLER_28_3
*920 FILLER_28_33
*921 FILLER_28_45
*922 FILLER_28_69
*923 FILLER_28_76
*924 FILLER_28_85
*925 FILLER_28_97
*926 FILLER_29_110
*927 FILLER_29_120
*928 FILLER_29_132
*929 FILLER_29_144
*930 FILLER_29_15
*931 FILLER_29_154
*932 FILLER_29_166
*933 FILLER_29_169
*934 FILLER_29_173
*935 FILLER_29_189
*936 FILLER_29_201
*937 FILLER_29_213
*938 FILLER_29_29
*939 FILLER_29_3
*940 FILLER_29_48
*941 FILLER_29_57
*942 FILLER_29_81
*943 FILLER_29_93
*944 FILLER_2_123
*945 FILLER_2_135
*946 FILLER_2_139
*947 FILLER_2_161
*948 FILLER_2_194
*949 FILLER_2_220
*950 FILLER_2_98
*951 FILLER_30_165
*952 FILLER_30_179
*953 FILLER_30_186
*954 FILLER_30_194
*955 FILLER_30_197
*956 FILLER_30_209
*957 FILLER_30_3
*958 FILLER_30_37
*959 FILLER_30_45
*960 FILLER_30_57
*961 FILLER_30_7
*962 FILLER_30_75
*963 FILLER_30_83
*964 FILLER_30_85
*965 FILLER_31_111
*966 FILLER_31_119
*967 FILLER_31_15
*968 FILLER_31_167
*969 FILLER_31_181
*970 FILLER_31_203
*971 FILLER_31_21
*972 FILLER_31_215
*973 FILLER_31_28
*974 FILLER_31_3
*975 FILLER_31_57
*976 FILLER_31_68
*977 FILLER_31_80
*978 FILLER_32_108
*979 FILLER_32_120
*980 FILLER_32_131
*981 FILLER_32_141
*982 FILLER_32_15
*983 FILLER_32_166
*984 FILLER_32_194
*985 FILLER_32_197
*986 FILLER_32_209
*987 FILLER_32_23
*988 FILLER_32_3
*989 FILLER_32_33
*990 FILLER_32_37
*991 FILLER_32_44
*992 FILLER_32_76
*993 FILLER_32_85
*994 FILLER_32_97
*995 FILLER_33_111
*996 FILLER_33_113
*997 FILLER_33_125
*998 FILLER_33_137
*999 FILLER_33_149
*1000 FILLER_33_15
*1001 FILLER_33_161
*1002 FILLER_33_167
*1003 FILLER_33_169
*1004 FILLER_33_181
*1005 FILLER_33_193
*1006 FILLER_33_205
*1007 FILLER_33_217
*1008 FILLER_33_27
*1009 FILLER_33_3
*1010 FILLER_33_55
*1011 FILLER_33_68
*1012 FILLER_33_75
*1013 FILLER_33_87
*1014 FILLER_33_99
*1015 FILLER_34_109
*1016 FILLER_34_121
*1017 FILLER_34_133
*1018 FILLER_34_139
*1019 FILLER_34_141
*1020 FILLER_34_15
*1021 FILLER_34_153
*1022 FILLER_34_165
*1023 FILLER_34_177
*1024 FILLER_34_189
*1025 FILLER_34_195
*1026 FILLER_34_197
*1027 FILLER_34_209
*1028 FILLER_34_27
*1029 FILLER_34_29
*1030 FILLER_34_3
*1031 FILLER_34_41
*1032 FILLER_34_53
*1033 FILLER_34_65
*1034 FILLER_34_77
*1035 FILLER_34_83
*1036 FILLER_34_85
*1037 FILLER_34_97
*1038 FILLER_35_105
*1039 FILLER_35_111
*1040 FILLER_35_113
*1041 FILLER_35_125
*1042 FILLER_35_137
*1043 FILLER_35_149
*1044 FILLER_35_161
*1045 FILLER_35_167
*1046 FILLER_35_169
*1047 FILLER_35_18
*1048 FILLER_35_181
*1049 FILLER_35_193
*1050 FILLER_35_205
*1051 FILLER_35_217
*1052 FILLER_35_30
*1053 FILLER_35_42
*1054 FILLER_35_54
*1055 FILLER_35_57
*1056 FILLER_35_6
*1057 FILLER_35_69
*1058 FILLER_35_81
*1059 FILLER_35_93
*1060 FILLER_36_109
*1061 FILLER_36_121
*1062 FILLER_36_133
*1063 FILLER_36_139
*1064 FILLER_36_141
*1065 FILLER_36_15
*1066 FILLER_36_153
*1067 FILLER_36_165
*1068 FILLER_36_177
*1069 FILLER_36_189
*1070 FILLER_36_195
*1071 FILLER_36_197
*1072 FILLER_36_209
*1073 FILLER_36_27
*1074 FILLER_36_29
*1075 FILLER_36_3
*1076 FILLER_36_41
*1077 FILLER_36_53
*1078 FILLER_36_65
*1079 FILLER_36_77
*1080 FILLER_36_83
*1081 FILLER_36_85
*1082 FILLER_36_97
*1083 FILLER_37_109
*1084 FILLER_37_113
*1085 FILLER_37_125
*1086 FILLER_37_137
*1087 FILLER_37_141
*1088 FILLER_37_15
*1089 FILLER_37_153
*1090 FILLER_37_165
*1091 FILLER_37_169
*1092 FILLER_37_181
*1093 FILLER_37_193
*1094 FILLER_37_197
*1095 FILLER_37_209
*1096 FILLER_37_27
*1097 FILLER_37_29
*1098 FILLER_37_3
*1099 FILLER_37_41
*1100 FILLER_37_53
*1101 FILLER_37_57
*1102 FILLER_37_69
*1103 FILLER_37_81
*1104 FILLER_37_85
*1105 FILLER_37_97
*1106 FILLER_3_11
*1107 FILLER_3_111
*1108 FILLER_3_113
*1109 FILLER_3_117
*1110 FILLER_3_134
*1111 FILLER_3_145
*1112 FILLER_3_163
*1113 FILLER_3_167
*1114 FILLER_3_199
*1115 FILLER_3_3
*1116 FILLER_3_30
*1117 FILLER_3_36
*1118 FILLER_3_43
*1119 FILLER_3_64
*1120 FILLER_3_76
*1121 FILLER_3_91
*1122 FILLER_4_110
*1123 FILLER_4_122
*1124 FILLER_4_127
*1125 FILLER_4_139
*1126 FILLER_4_141
*1127 FILLER_4_15
*1128 FILLER_4_153
*1129 FILLER_4_165
*1130 FILLER_4_173
*1131 FILLER_4_182
*1132 FILLER_4_220
*1133 FILLER_4_24
*1134 FILLER_4_29
*1135 FILLER_4_3
*1136 FILLER_4_41
*1137 FILLER_4_59
*1138 FILLER_4_71
*1139 FILLER_4_83
*1140 FILLER_4_85
*1141 FILLER_5_106
*1142 FILLER_5_113
*1143 FILLER_5_121
*1144 FILLER_5_129
*1145 FILLER_5_135
*1146 FILLER_5_149
*1147 FILLER_5_15
*1148 FILLER_5_158
*1149 FILLER_5_162
*1150 FILLER_5_169
*1151 FILLER_5_19
*1152 FILLER_5_198
*1153 FILLER_5_3
*1154 FILLER_5_40
*1155 FILLER_5_44
*1156 FILLER_5_52
*1157 FILLER_5_62
*1158 FILLER_5_74
*1159 FILLER_5_85
*1160 FILLER_5_98
*1161 FILLER_6_103
*1162 FILLER_6_112
*1163 FILLER_6_121
*1164 FILLER_6_129
*1165 FILLER_6_137
*1166 FILLER_6_141
*1167 FILLER_6_174
*1168 FILLER_6_184
*1169 FILLER_6_197
*1170 FILLER_6_219
*1171 FILLER_6_3
*1172 FILLER_6_39
*1173 FILLER_6_43
*1174 FILLER_6_64
*1175 FILLER_6_83
*1176 FILLER_6_88
*1177 FILLER_7_111
*1178 FILLER_7_113
*1179 FILLER_7_122
*1180 FILLER_7_131
*1181 FILLER_7_136
*1182 FILLER_7_146
*1183 FILLER_7_154
*1184 FILLER_7_159
*1185 FILLER_7_167
*1186 FILLER_7_190
*1187 FILLER_7_33
*1188 FILLER_7_45
*1189 FILLER_7_53
*1190 FILLER_7_57
*1191 FILLER_7_61
*1192 FILLER_7_93
*1193 FILLER_8_107
*1194 FILLER_8_11
*1195 FILLER_8_115
*1196 FILLER_8_122
*1197 FILLER_8_128
*1198 FILLER_8_149
*1199 FILLER_8_170
*1200 FILLER_8_182
*1201 FILLER_8_194
*1202 FILLER_8_20
*1203 FILLER_8_3
*1204 FILLER_8_37
*1205 FILLER_8_51
*1206 FILLER_8_63
*1207 FILLER_8_70
*1208 FILLER_8_82
*1209 FILLER_8_85
*1210 FILLER_8_98
*1211 FILLER_9_103
*1212 FILLER_9_111
*1213 FILLER_9_113
*1214 FILLER_9_125
*1215 FILLER_9_137
*1216 FILLER_9_143
*1217 FILLER_9_15
*1218 FILLER_9_159
*1219 FILLER_9_180
*1220 FILLER_9_186
*1221 FILLER_9_198
*1222 FILLER_9_210
*1223 FILLER_9_27
*1224 FILLER_9_3
*1225 FILLER_9_31
*1226 FILLER_9_35
*1227 FILLER_9_57
*1228 FILLER_9_72
*1229 FILLER_9_76
*1230 FILLER_9_84
*1231 FILLER_9_92
*1232 PHY_EDGE_ROW_0_Left_38
*1233 PHY_EDGE_ROW_0_Right_0
*1234 PHY_EDGE_ROW_10_Left_48
*1235 PHY_EDGE_ROW_10_Right_10
*1236 PHY_EDGE_ROW_11_Left_49
*1237 PHY_EDGE_ROW_11_Right_11
*1238 PHY_EDGE_ROW_12_Left_50
*1239 PHY_EDGE_ROW_12_Right_12
*1240 PHY_EDGE_ROW_13_Left_51
*1241 PHY_EDGE_ROW_13_Right_13
*1242 PHY_EDGE_ROW_14_Left_52
*1243 PHY_EDGE_ROW_14_Right_14
*1244 PHY_EDGE_ROW_15_Left_53
*1245 PHY_EDGE_ROW_15_Right_15
*1246 PHY_EDGE_ROW_16_Left_54
*1247 PHY_EDGE_ROW_16_Right_16
*1248 PHY_EDGE_ROW_17_Left_55
*1249 PHY_EDGE_ROW_17_Right_17
*1250 PHY_EDGE_ROW_18_Left_56
*1251 PHY_EDGE_ROW_18_Right_18
*1252 PHY_EDGE_ROW_19_Left_57
*1253 PHY_EDGE_ROW_19_Right_19
*1254 PHY_EDGE_ROW_1_Left_39
*1255 PHY_EDGE_ROW_1_Right_1
*1256 PHY_EDGE_ROW_20_Left_58
*1257 PHY_EDGE_ROW_20_Right_20
*1258 PHY_EDGE_ROW_21_Left_59
*1259 PHY_EDGE_ROW_21_Right_21
*1260 PHY_EDGE_ROW_22_Left_60
*1261 PHY_EDGE_ROW_22_Right_22
*1262 PHY_EDGE_ROW_23_Left_61
*1263 PHY_EDGE_ROW_23_Right_23
*1264 PHY_EDGE_ROW_24_Left_62
*1265 PHY_EDGE_ROW_24_Right_24
*1266 PHY_EDGE_ROW_25_Left_63
*1267 PHY_EDGE_ROW_25_Right_25
*1268 PHY_EDGE_ROW_26_Left_64
*1269 PHY_EDGE_ROW_26_Right_26
*1270 PHY_EDGE_ROW_27_Left_65
*1271 PHY_EDGE_ROW_27_Right_27
*1272 PHY_EDGE_ROW_28_Left_66
*1273 PHY_EDGE_ROW_28_Right_28
*1274 PHY_EDGE_ROW_29_Left_67
*1275 PHY_EDGE_ROW_29_Right_29
*1276 PHY_EDGE_ROW_2_Left_40
*1277 PHY_EDGE_ROW_2_Right_2
*1278 PHY_EDGE_ROW_30_Left_68
*1279 PHY_EDGE_ROW_30_Right_30
*1280 PHY_EDGE_ROW_31_Left_69
*1281 PHY_EDGE_ROW_31_Right_31
*1282 PHY_EDGE_ROW_32_Left_70
*1283 PHY_EDGE_ROW_32_Right_32
*1284 PHY_EDGE_ROW_33_Left_71
*1285 PHY_EDGE_ROW_33_Right_33
*1286 PHY_EDGE_ROW_34_Left_72
*1287 PHY_EDGE_ROW_34_Right_34
*1288 PHY_EDGE_ROW_35_Left_73
*1289 PHY_EDGE_ROW_35_Right_35
*1290 PHY_EDGE_ROW_36_Left_74
*1291 PHY_EDGE_ROW_36_Right_36
*1292 PHY_EDGE_ROW_37_Left_75
*1293 PHY_EDGE_ROW_37_Right_37
*1294 PHY_EDGE_ROW_3_Left_41
*1295 PHY_EDGE_ROW_3_Right_3
*1296 PHY_EDGE_ROW_4_Left_42
*1297 PHY_EDGE_ROW_4_Right_4
*1298 PHY_EDGE_ROW_5_Left_43
*1299 PHY_EDGE_ROW_5_Right_5
*1300 PHY_EDGE_ROW_6_Left_44
*1301 PHY_EDGE_ROW_6_Right_6
*1302 PHY_EDGE_ROW_7_Left_45
*1303 PHY_EDGE_ROW_7_Right_7
*1304 PHY_EDGE_ROW_8_Left_46
*1305 PHY_EDGE_ROW_8_Right_8
*1306 PHY_EDGE_ROW_9_Left_47
*1307 PHY_EDGE_ROW_9_Right_9
*1308 SSS_76
*1309 SSS_77
*1310 TAP_TAPCELL_ROW_0_76
*1311 TAP_TAPCELL_ROW_0_77
*1312 TAP_TAPCELL_ROW_0_78
*1313 TAP_TAPCELL_ROW_0_79
*1314 TAP_TAPCELL_ROW_0_80
*1315 TAP_TAPCELL_ROW_0_81
*1316 TAP_TAPCELL_ROW_0_82
*1317 TAP_TAPCELL_ROW_10_114
*1318 TAP_TAPCELL_ROW_10_115
*1319 TAP_TAPCELL_ROW_10_116
*1320 TAP_TAPCELL_ROW_10_117
*1321 TAP_TAPCELL_ROW_11_118
*1322 TAP_TAPCELL_ROW_11_119
*1323 TAP_TAPCELL_ROW_11_120
*1324 TAP_TAPCELL_ROW_12_121
*1325 TAP_TAPCELL_ROW_12_122
*1326 TAP_TAPCELL_ROW_12_123
*1327 TAP_TAPCELL_ROW_12_124
*1328 TAP_TAPCELL_ROW_13_125
*1329 TAP_TAPCELL_ROW_13_126
*1330 TAP_TAPCELL_ROW_13_127
*1331 TAP_TAPCELL_ROW_14_128
*1332 TAP_TAPCELL_ROW_14_129
*1333 TAP_TAPCELL_ROW_14_130
*1334 TAP_TAPCELL_ROW_14_131
*1335 TAP_TAPCELL_ROW_15_132
*1336 TAP_TAPCELL_ROW_15_133
*1337 TAP_TAPCELL_ROW_15_134
*1338 TAP_TAPCELL_ROW_16_135
*1339 TAP_TAPCELL_ROW_16_136
*1340 TAP_TAPCELL_ROW_16_137
*1341 TAP_TAPCELL_ROW_16_138
*1342 TAP_TAPCELL_ROW_17_139
*1343 TAP_TAPCELL_ROW_17_140
*1344 TAP_TAPCELL_ROW_17_141
*1345 TAP_TAPCELL_ROW_18_142
*1346 TAP_TAPCELL_ROW_18_143
*1347 TAP_TAPCELL_ROW_18_144
*1348 TAP_TAPCELL_ROW_18_145
*1349 TAP_TAPCELL_ROW_19_146
*1350 TAP_TAPCELL_ROW_19_147
*1351 TAP_TAPCELL_ROW_19_148
*1352 TAP_TAPCELL_ROW_1_83
*1353 TAP_TAPCELL_ROW_1_84
*1354 TAP_TAPCELL_ROW_1_85
*1355 TAP_TAPCELL_ROW_20_149
*1356 TAP_TAPCELL_ROW_20_150
*1357 TAP_TAPCELL_ROW_20_151
*1358 TAP_TAPCELL_ROW_20_152
*1359 TAP_TAPCELL_ROW_21_153
*1360 TAP_TAPCELL_ROW_21_154
*1361 TAP_TAPCELL_ROW_21_155
*1362 TAP_TAPCELL_ROW_22_156
*1363 TAP_TAPCELL_ROW_22_157
*1364 TAP_TAPCELL_ROW_22_158
*1365 TAP_TAPCELL_ROW_22_159
*1366 TAP_TAPCELL_ROW_23_160
*1367 TAP_TAPCELL_ROW_23_161
*1368 TAP_TAPCELL_ROW_23_162
*1369 TAP_TAPCELL_ROW_24_163
*1370 TAP_TAPCELL_ROW_24_164
*1371 TAP_TAPCELL_ROW_24_165
*1372 TAP_TAPCELL_ROW_24_166
*1373 TAP_TAPCELL_ROW_25_167
*1374 TAP_TAPCELL_ROW_25_168
*1375 TAP_TAPCELL_ROW_25_169
*1376 TAP_TAPCELL_ROW_26_170
*1377 TAP_TAPCELL_ROW_26_171
*1378 TAP_TAPCELL_ROW_26_172
*1379 TAP_TAPCELL_ROW_26_173
*1380 TAP_TAPCELL_ROW_27_174
*1381 TAP_TAPCELL_ROW_27_175
*1382 TAP_TAPCELL_ROW_27_176
*1383 TAP_TAPCELL_ROW_28_177
*1384 TAP_TAPCELL_ROW_28_178
*1385 TAP_TAPCELL_ROW_28_179
*1386 TAP_TAPCELL_ROW_28_180
*1387 TAP_TAPCELL_ROW_29_181
*1388 TAP_TAPCELL_ROW_29_182
*1389 TAP_TAPCELL_ROW_29_183
*1390 TAP_TAPCELL_ROW_2_86
*1391 TAP_TAPCELL_ROW_2_87
*1392 TAP_TAPCELL_ROW_2_88
*1393 TAP_TAPCELL_ROW_2_89
*1394 TAP_TAPCELL_ROW_30_184
*1395 TAP_TAPCELL_ROW_30_185
*1396 TAP_TAPCELL_ROW_30_186
*1397 TAP_TAPCELL_ROW_30_187
*1398 TAP_TAPCELL_ROW_31_188
*1399 TAP_TAPCELL_ROW_31_189
*1400 TAP_TAPCELL_ROW_31_190
*1401 TAP_TAPCELL_ROW_32_191
*1402 TAP_TAPCELL_ROW_32_192
*1403 TAP_TAPCELL_ROW_32_193
*1404 TAP_TAPCELL_ROW_32_194
*1405 TAP_TAPCELL_ROW_33_195
*1406 TAP_TAPCELL_ROW_33_196
*1407 TAP_TAPCELL_ROW_33_197
*1408 TAP_TAPCELL_ROW_34_198
*1409 TAP_TAPCELL_ROW_34_199
*1410 TAP_TAPCELL_ROW_34_200
*1411 TAP_TAPCELL_ROW_34_201
*1412 TAP_TAPCELL_ROW_35_202
*1413 TAP_TAPCELL_ROW_35_203
*1414 TAP_TAPCELL_ROW_35_204
*1415 TAP_TAPCELL_ROW_36_205
*1416 TAP_TAPCELL_ROW_36_206
*1417 TAP_TAPCELL_ROW_36_207
*1418 TAP_TAPCELL_ROW_36_208
*1419 TAP_TAPCELL_ROW_37_209
*1420 TAP_TAPCELL_ROW_37_210
*1421 TAP_TAPCELL_ROW_37_211
*1422 TAP_TAPCELL_ROW_37_212
*1423 TAP_TAPCELL_ROW_37_213
*1424 TAP_TAPCELL_ROW_37_214
*1425 TAP_TAPCELL_ROW_37_215
*1426 TAP_TAPCELL_ROW_3_90
*1427 TAP_TAPCELL_ROW_3_91
*1428 TAP_TAPCELL_ROW_3_92
*1429 TAP_TAPCELL_ROW_4_93
*1430 TAP_TAPCELL_ROW_4_94
*1431 TAP_TAPCELL_ROW_4_95
*1432 TAP_TAPCELL_ROW_4_96
*1433 TAP_TAPCELL_ROW_5_97
*1434 TAP_TAPCELL_ROW_5_98
*1435 TAP_TAPCELL_ROW_5_99
*1436 TAP_TAPCELL_ROW_6_100
*1437 TAP_TAPCELL_ROW_6_101
*1438 TAP_TAPCELL_ROW_6_102
*1439 TAP_TAPCELL_ROW_6_103
*1440 TAP_TAPCELL_ROW_7_104
*1441 TAP_TAPCELL_ROW_7_105
*1442 TAP_TAPCELL_ROW_7_106
*1443 TAP_TAPCELL_ROW_8_107
*1444 TAP_TAPCELL_ROW_8_108
*1445 TAP_TAPCELL_ROW_8_109
*1446 TAP_TAPCELL_ROW_8_110
*1447 TAP_TAPCELL_ROW_9_111
*1448 TAP_TAPCELL_ROW_9_112
*1449 TAP_TAPCELL_ROW_9_113
*1450 _350_
*1451 _351_
*1452 _352_
*1453 _353_
*1454 _354_
*1455 _355_
*1456 _356_
*1457 _357_
*1458 _358_
*1459 _359_
*1460 _360_
*1461 _361_
*1462 _362_
*1463 _363_
*1464 _364_
*1465 _365_
*1466 _366_
*1467 _367_
*1468 _368_
*1469 _369_
*1470 _370_
*1471 _371_
*1472 _372_
*1473 _373_
*1474 _374_
*1475 _375_
*1476 _376_
*1477 _377_
*1478 _378_
*1479 _379_
*1480 _380_
*1481 _381_
*1482 _382_
*1483 _383_
*1484 _384_
*1485 _385_
*1486 _386_
*1487 _387_
*1488 _388_
*1489 _389_
*1490 _390_
*1491 _391_
*1492 _392_
*1493 _393_
*1494 _394_
*1495 _395_
*1496 _396_
*1497 _397_
*1498 _398_
*1499 _399_
*1500 _400_
*1501 _401_
*1502 _402_
*1503 _403_
*1504 _404_
*1505 _405_
*1506 _406_
*1507 _407_
*1508 _408_
*1509 _409_
*1510 _410_
*1511 _411_
*1512 _412_
*1513 _413_
*1514 _414_
*1515 _415_
*1516 _416_
*1517 _417_
*1518 _418_
*1519 _419_
*1520 _420_
*1521 _421_
*1522 _422_
*1523 _423_
*1524 _424_
*1525 _425_
*1526 _426_
*1527 _427_
*1528 _428_
*1529 _429_
*1530 _430_
*1531 _431_
*1532 _432_
*1533 _433_
*1534 _434_
*1535 _435_
*1536 _436_
*1537 _437_
*1538 _438_
*1539 _439_
*1540 _440_
*1541 _441_
*1542 _442_
*1543 _443_
*1544 _444_
*1545 _445_
*1546 _446_
*1547 _447_
*1548 _448_
*1549 _449_
*1550 _450_
*1551 _451_
*1552 _452_
*1553 _453_
*1554 _454_
*1555 _455_
*1556 _456_
*1557 _457_
*1558 _458_
*1559 _459_
*1560 _460_
*1561 _461_
*1562 _462_
*1563 _463_
*1564 _464_
*1565 _465_
*1566 _466_
*1567 _467_
*1568 _468_
*1569 _469_
*1570 _470_
*1571 _471_
*1572 _472_
*1573 _473_
*1574 _474_
*1575 _475_
*1576 _476_
*1577 _477_
*1578 _478_
*1579 _479_
*1580 _480_
*1581 _481_
*1582 _482_
*1583 _483_
*1584 _484_
*1585 _485_
*1586 _486_
*1587 _487_
*1588 _488_
*1589 _489_
*1590 _490_
*1591 _491_
*1592 _492_
*1593 _493_
*1594 _494_
*1595 _495_
*1596 _496_
*1597 _497_
*1598 _498_
*1599 _499_
*1600 _500_
*1601 _501_
*1602 _502_
*1603 _503_
*1604 _504_
*1605 _505_
*1606 _506_
*1607 _507_
*1608 _508_
*1609 _509_
*1610 _510_
*1611 _511_
*1612 _512_
*1613 _513_
*1614 _514_
*1615 _515_
*1616 _516_
*1617 _517_
*1618 _518_
*1619 _519_
*1620 _520_
*1621 _521_
*1622 _522_
*1623 _523_
*1624 _524_
*1625 _525_
*1626 _526_
*1627 _527_
*1628 _528_
*1629 _529_
*1630 _530_
*1631 _531_
*1632 _532_
*1633 _533_
*1634 _534_
*1635 _535_
*1636 _536_
*1637 _537_
*1638 _538_
*1639 _539_
*1640 _540_
*1641 _541_
*1642 _542_
*1643 _543_
*1644 _544_
*1645 _545_
*1646 _546_
*1647 _547_
*1648 _548_
*1649 _549_
*1650 _550_
*1651 _551_
*1652 _552_
*1653 _553_
*1654 _554_
*1655 _555_
*1656 _556_
*1657 _557_
*1658 _558_
*1659 _559_
*1660 _560_
*1661 _561_
*1662 _562_
*1663 _563_
*1664 _564_
*1665 _565_
*1666 _566_
*1667 _567_
*1668 _568_
*1669 _569_
*1670 _570_
*1671 _571_
*1672 _572_
*1673 _573_
*1674 _574_
*1675 _575_
*1676 _576_
*1677 _577_
*1678 _578_
*1679 _579_
*1680 _580_
*1681 _581_
*1682 _582_
*1683 _583_
*1684 _584_
*1685 _585_
*1686 _586_
*1687 _587_
*1688 _588_
*1689 _589_
*1690 _590_
*1691 _591_
*1692 _592_
*1693 _593_
*1694 _594_
*1695 _595_
*1696 _596_
*1697 _597_
*1698 _598_
*1699 _599_
*1700 _600_
*1701 _601_
*1702 _602_
*1703 _603_
*1704 _604_
*1705 _605_
*1706 _606_
*1707 _607_
*1708 _608_
*1709 _609_
*1710 _610_
*1711 _611_
*1712 _612_
*1713 _613_
*1714 _614_
*1715 _615_
*1716 _616_
*1717 _617_
*1718 _618_
*1719 _619_
*1720 _620_
*1721 _621_
*1722 _622_
*1723 _623_
*1724 _624_
*1725 _625_
*1726 _626_
*1727 _627_
*1728 _628_
*1729 _629_
*1730 _630_
*1731 _631_
*1732 _632_
*1733 _633_
*1734 _634_
*1735 _635_
*1736 _636_
*1737 _637_
*1738 _638_
*1739 _639_
*1740 _640_
*1741 _641_
*1742 _642_
*1743 _643_
*1744 _644_
*1745 _645_
*1746 _646_
*1747 _647_
*1748 _648_
*1749 _649_
*1750 _650_
*1751 _651_
*1752 _652_
*1753 _653_
*1754 _654_
*1755 _655_
*1756 _656_
*1757 _657_
*1758 _658_
*1759 _659_
*1760 _660_
*1761 _661_
*1762 _662_
*1763 _663_
*1764 _664_
*1765 _665_
*1766 _666_
*1767 _667_
*1768 _668_
*1769 _669_
*1770 _670_
*1771 _671_
*1772 _672_
*1773 _673_
*1774 _674_
*1775 _675_
*1776 _676_
*1777 _677_
*1778 _678_
*1779 _679_
*1780 _680_
*1781 _681_
*1782 _682_
*1783 _683_
*1784 _684_
*1785 _685_
*1786 _686_