* NGSPICE file created from SSS.ext - technology: sky130A

* Black-box entry subcircuit for sky130_fd_sc_hd__tapvpwrvgnd_1 abstract view
.subckt sky130_fd_sc_hd__tapvpwrvgnd_1 VGND VPWR
.ends

* Black-box entry subcircuit for sky130_fd_sc_hd__decap_3 abstract view
.subckt sky130_fd_sc_hd__decap_3 VGND VNB VPB VPWR
.ends

* Black-box entry subcircuit for sky130_fd_sc_hd__and2_1 abstract view
.subckt sky130_fd_sc_hd__and2_1 A B VGND VNB VPB VPWR X
.ends

* Black-box entry subcircuit for sky130_fd_sc_hd__decap_8 abstract view
.subckt sky130_fd_sc_hd__decap_8 VGND VNB VPB VPWR
.ends

* Black-box entry subcircuit for sky130_ef_sc_hd__decap_12 abstract view
.subckt sky130_ef_sc_hd__decap_12 VPWR VGND VPB VNB
.ends

* Black-box entry subcircuit for sky130_fd_sc_hd__nand2_2 abstract view
.subckt sky130_fd_sc_hd__nand2_2 A B VGND VNB VPB VPWR Y
.ends

* Black-box entry subcircuit for sky130_fd_sc_hd__nand2b_1 abstract view
.subckt sky130_fd_sc_hd__nand2b_1 A_N B VGND VNB VPB VPWR Y
.ends

* Black-box entry subcircuit for sky130_fd_sc_hd__fill_1 abstract view
.subckt sky130_fd_sc_hd__fill_1 VGND VNB VPB VPWR
.ends

* Black-box entry subcircuit for sky130_fd_sc_hd__decap_6 abstract view
.subckt sky130_fd_sc_hd__decap_6 VGND VNB VPB VPWR
.ends

* Black-box entry subcircuit for sky130_fd_sc_hd__decap_4 abstract view
.subckt sky130_fd_sc_hd__decap_4 VGND VNB VPB VPWR
.ends

* Black-box entry subcircuit for sky130_fd_sc_hd__or4b_1 abstract view
.subckt sky130_fd_sc_hd__or4b_1 A B C D_N VGND VNB VPB VPWR X
.ends

* Black-box entry subcircuit for sky130_fd_sc_hd__a31o_1 abstract view
.subckt sky130_fd_sc_hd__a31o_1 A1 A2 A3 B1 VGND VNB VPB VPWR X
.ends

* Black-box entry subcircuit for sky130_fd_sc_hd__dfrtp_1 abstract view
.subckt sky130_fd_sc_hd__dfrtp_1 CLK D RESET_B VGND VNB VPB VPWR Q
.ends

* Black-box entry subcircuit for sky130_fd_sc_hd__and3b_1 abstract view
.subckt sky130_fd_sc_hd__and3b_1 A_N B C VGND VNB VPB VPWR X
.ends

* Black-box entry subcircuit for sky130_fd_sc_hd__o21ai_1 abstract view
.subckt sky130_fd_sc_hd__o21ai_1 A1 A2 B1 VGND VNB VPB VPWR Y
.ends

* Black-box entry subcircuit for sky130_fd_sc_hd__mux2_1 abstract view
.subckt sky130_fd_sc_hd__mux2_1 A0 A1 S VGND VNB VPB VPWR X
.ends

* Black-box entry subcircuit for sky130_fd_sc_hd__buf_2 abstract view
.subckt sky130_fd_sc_hd__buf_2 A VGND VNB VPB VPWR X
.ends

* Black-box entry subcircuit for sky130_fd_sc_hd__and4_1 abstract view
.subckt sky130_fd_sc_hd__and4_1 A B C D VGND VNB VPB VPWR X
.ends

* Black-box entry subcircuit for sky130_fd_sc_hd__and3_1 abstract view
.subckt sky130_fd_sc_hd__and3_1 A B C VGND VNB VPB VPWR X
.ends

* Black-box entry subcircuit for sky130_fd_sc_hd__or4_1 abstract view
.subckt sky130_fd_sc_hd__or4_1 A B C D VGND VNB VPB VPWR X
.ends

* Black-box entry subcircuit for sky130_fd_sc_hd__a21oi_1 abstract view
.subckt sky130_fd_sc_hd__a21oi_1 A1 A2 B1 VGND VNB VPB VPWR Y
.ends

* Black-box entry subcircuit for sky130_fd_sc_hd__nand2_1 abstract view
.subckt sky130_fd_sc_hd__nand2_1 A B VGND VNB VPB VPWR Y
.ends

* Black-box entry subcircuit for sky130_fd_sc_hd__fill_2 abstract view
.subckt sky130_fd_sc_hd__fill_2 VGND VNB VPB VPWR
.ends

* Black-box entry subcircuit for sky130_fd_sc_hd__dlygate4sd3_1 abstract view
.subckt sky130_fd_sc_hd__dlygate4sd3_1 A VGND VNB VPB VPWR X
.ends

* Black-box entry subcircuit for sky130_fd_sc_hd__nor2_1 abstract view
.subckt sky130_fd_sc_hd__nor2_1 A B VGND VNB VPB VPWR Y
.ends

* Black-box entry subcircuit for sky130_fd_sc_hd__or3_1 abstract view
.subckt sky130_fd_sc_hd__or3_1 A B C VGND VNB VPB VPWR X
.ends

* Black-box entry subcircuit for sky130_fd_sc_hd__inv_2 abstract view
.subckt sky130_fd_sc_hd__inv_2 A VGND VNB VPB VPWR Y
.ends

* Black-box entry subcircuit for sky130_fd_sc_hd__or2_1 abstract view
.subckt sky130_fd_sc_hd__or2_1 A B VGND VNB VPB VPWR X
.ends

* Black-box entry subcircuit for sky130_fd_sc_hd__o31a_1 abstract view
.subckt sky130_fd_sc_hd__o31a_1 A1 A2 A3 B1 VGND VNB VPB VPWR X
.ends

* Black-box entry subcircuit for sky130_fd_sc_hd__a21o_1 abstract view
.subckt sky130_fd_sc_hd__a21o_1 A1 A2 B1 VGND VNB VPB VPWR X
.ends

* Black-box entry subcircuit for sky130_fd_sc_hd__nand4_1 abstract view
.subckt sky130_fd_sc_hd__nand4_1 A B C D VGND VNB VPB VPWR Y
.ends

* Black-box entry subcircuit for sky130_fd_sc_hd__o211a_1 abstract view
.subckt sky130_fd_sc_hd__o211a_1 A1 A2 B1 C1 VGND VNB VPB VPWR X
.ends

* Black-box entry subcircuit for sky130_fd_sc_hd__clkbuf_16 abstract view
.subckt sky130_fd_sc_hd__clkbuf_16 A VGND VNB VPB VPWR X
.ends

* Black-box entry subcircuit for sky130_fd_sc_hd__o22a_1 abstract view
.subckt sky130_fd_sc_hd__o22a_1 A1 A2 B1 B2 VGND VNB VPB VPWR X
.ends

* Black-box entry subcircuit for sky130_fd_sc_hd__clkbuf_4 abstract view
.subckt sky130_fd_sc_hd__clkbuf_4 A VGND VNB VPB VPWR X
.ends

* Black-box entry subcircuit for sky130_fd_sc_hd__a22oi_1 abstract view
.subckt sky130_fd_sc_hd__a22oi_1 A1 A2 B1 B2 VGND VNB VPB VPWR Y
.ends

* Black-box entry subcircuit for sky130_fd_sc_hd__or4bb_1 abstract view
.subckt sky130_fd_sc_hd__or4bb_1 A B C_N D_N VGND VNB VPB VPWR X
.ends

* Black-box entry subcircuit for sky130_fd_sc_hd__o31ai_1 abstract view
.subckt sky130_fd_sc_hd__o31ai_1 A1 A2 A3 B1 VGND VNB VPB VPWR Y
.ends

* Black-box entry subcircuit for sky130_fd_sc_hd__clkbuf_2 abstract view
.subckt sky130_fd_sc_hd__clkbuf_2 A VGND VNB VPB VPWR X
.ends

* Black-box entry subcircuit for sky130_fd_sc_hd__clkinv_4 abstract view
.subckt sky130_fd_sc_hd__clkinv_4 A VGND VNB VPB VPWR Y
.ends

* Black-box entry subcircuit for sky130_fd_sc_hd__o21a_1 abstract view
.subckt sky130_fd_sc_hd__o21a_1 A1 A2 B1 VGND VNB VPB VPWR X
.ends

* Black-box entry subcircuit for sky130_fd_sc_hd__clkinvlp_4 abstract view
.subckt sky130_fd_sc_hd__clkinvlp_4 A VGND VNB VPB VPWR Y
.ends

* Black-box entry subcircuit for sky130_fd_sc_hd__or3_4 abstract view
.subckt sky130_fd_sc_hd__or3_4 A B C VGND VNB VPB VPWR X
.ends

* Black-box entry subcircuit for sky130_fd_sc_hd__inv_6 abstract view
.subckt sky130_fd_sc_hd__inv_6 A VGND VNB VPB VPWR Y
.ends

* Black-box entry subcircuit for sky130_fd_sc_hd__dfrtp_2 abstract view
.subckt sky130_fd_sc_hd__dfrtp_2 CLK D RESET_B VGND VNB VPB VPWR Q
.ends

* Black-box entry subcircuit for sky130_fd_sc_hd__nor3_1 abstract view
.subckt sky130_fd_sc_hd__nor3_1 A B C VGND VNB VPB VPWR Y
.ends

* Black-box entry subcircuit for sky130_fd_sc_hd__dlymetal6s2s_1 abstract view
.subckt sky130_fd_sc_hd__dlymetal6s2s_1 A VGND VNB VPB VPWR X
.ends

* Black-box entry subcircuit for sky130_fd_sc_hd__and4b_1 abstract view
.subckt sky130_fd_sc_hd__and4b_1 A_N B C D VGND VNB VPB VPWR X
.ends

* Black-box entry subcircuit for sky130_fd_sc_hd__a22o_1 abstract view
.subckt sky130_fd_sc_hd__a22o_1 A1 A2 B1 B2 VGND VNB VPB VPWR X
.ends

* Black-box entry subcircuit for sky130_fd_sc_hd__nor3b_1 abstract view
.subckt sky130_fd_sc_hd__nor3b_1 A B C_N VGND VNB VPB VPWR Y
.ends

* Black-box entry subcircuit for sky130_fd_sc_hd__clkinv_2 abstract view
.subckt sky130_fd_sc_hd__clkinv_2 A VGND VNB VPB VPWR Y
.ends

* Black-box entry subcircuit for sky130_fd_sc_hd__clkbuf_1 abstract view
.subckt sky130_fd_sc_hd__clkbuf_1 A VGND VNB VPB VPWR X
.ends

* Black-box entry subcircuit for sky130_fd_sc_hd__a31oi_1 abstract view
.subckt sky130_fd_sc_hd__a31oi_1 A1 A2 A3 B1 VGND VNB VPB VPWR Y
.ends

* Black-box entry subcircuit for sky130_fd_sc_hd__nor4_1 abstract view
.subckt sky130_fd_sc_hd__nor4_1 A B C D VGND VNB VPB VPWR Y
.ends

* Black-box entry subcircuit for sky130_fd_sc_hd__xor2_1 abstract view
.subckt sky130_fd_sc_hd__xor2_1 A B VGND VNB VPB VPWR X
.ends

* Black-box entry subcircuit for sky130_fd_sc_hd__a2bb2o_1 abstract view
.subckt sky130_fd_sc_hd__a2bb2o_1 A1_N A2_N B1 B2 VGND VNB VPB VPWR X
.ends

* Black-box entry subcircuit for sky130_fd_sc_hd__conb_1 abstract view
.subckt sky130_fd_sc_hd__conb_1 VGND VNB VPB VPWR HI LO
.ends

* Black-box entry subcircuit for sky130_fd_sc_hd__buf_1 abstract view
.subckt sky130_fd_sc_hd__buf_1 A VGND VNB VPB VPWR X
.ends

* Black-box entry subcircuit for sky130_fd_sc_hd__and2b_1 abstract view
.subckt sky130_fd_sc_hd__and2b_1 A_N B VGND VNB VPB VPWR X
.ends

* Black-box entry subcircuit for sky130_fd_sc_hd__and4bb_1 abstract view
.subckt sky130_fd_sc_hd__and4bb_1 A_N B_N C D VGND VNB VPB VPWR X
.ends

* Black-box entry subcircuit for sky130_fd_sc_hd__o2111a_1 abstract view
.subckt sky130_fd_sc_hd__o2111a_1 A1 A2 B1 C1 D1 VGND VNB VPB VPWR X
.ends

* Black-box entry subcircuit for sky130_fd_sc_hd__nand2b_4 abstract view
.subckt sky130_fd_sc_hd__nand2b_4 A_N B VGND VNB VPB VPWR Y
.ends

* Black-box entry subcircuit for sky130_fd_sc_hd__or3b_1 abstract view
.subckt sky130_fd_sc_hd__or3b_1 A B C_N VGND VNB VPB VPWR X
.ends

* Black-box entry subcircuit for sky130_fd_sc_hd__xnor2_1 abstract view
.subckt sky130_fd_sc_hd__xnor2_1 A B VGND VNB VPB VPWR Y
.ends

* Black-box entry subcircuit for sky130_fd_sc_hd__dfstp_1 abstract view
.subckt sky130_fd_sc_hd__dfstp_1 CLK D SET_B VGND VNB VPB VPWR Q
.ends

* Black-box entry subcircuit for sky130_fd_sc_hd__a21bo_1 abstract view
.subckt sky130_fd_sc_hd__a21bo_1 A1 A2 B1_N VGND VNB VPB VPWR X
.ends

* Black-box entry subcircuit for sky130_fd_sc_hd__o32a_1 abstract view
.subckt sky130_fd_sc_hd__o32a_1 A1 A2 A3 B1 B2 VGND VNB VPB VPWR X
.ends

* Black-box entry subcircuit for sky130_fd_sc_hd__o221a_1 abstract view
.subckt sky130_fd_sc_hd__o221a_1 A1 A2 B1 B2 C1 VGND VNB VPB VPWR X
.ends

* Black-box entry subcircuit for sky130_fd_sc_hd__o21bai_1 abstract view
.subckt sky130_fd_sc_hd__o21bai_1 A1 A2 B1_N VGND VNB VPB VPWR Y
.ends

* Black-box entry subcircuit for sky130_fd_sc_hd__o2bb2a_1 abstract view
.subckt sky130_fd_sc_hd__o2bb2a_1 A1_N A2_N B1 B2 VGND VNB VPB VPWR X
.ends

* Black-box entry subcircuit for sky130_fd_sc_hd__and4_2 abstract view
.subckt sky130_fd_sc_hd__and4_2 A B C D VGND VNB VPB VPWR X
.ends

* Black-box entry subcircuit for sky130_fd_sc_hd__or3b_2 abstract view
.subckt sky130_fd_sc_hd__or3b_2 A B C_N VGND VNB VPB VPWR X
.ends

* Black-box entry subcircuit for sky130_fd_sc_hd__a32o_1 abstract view
.subckt sky130_fd_sc_hd__a32o_1 A1 A2 A3 B1 B2 VGND VNB VPB VPWR X
.ends

* Black-box entry subcircuit for sky130_fd_sc_hd__o221ai_1 abstract view
.subckt sky130_fd_sc_hd__o221ai_1 A1 A2 B1 B2 C1 VGND VNB VPB VPWR Y
.ends

* Black-box entry subcircuit for sky130_fd_sc_hd__a21boi_1 abstract view
.subckt sky130_fd_sc_hd__a21boi_1 A1 A2 B1_N VGND VNB VPB VPWR Y
.ends

* Black-box entry subcircuit for sky130_fd_sc_hd__or2_2 abstract view
.subckt sky130_fd_sc_hd__or2_2 A B VGND VNB VPB VPWR X
.ends

* Black-box entry subcircuit for sky130_fd_sc_hd__dfrtp_4 abstract view
.subckt sky130_fd_sc_hd__dfrtp_4 CLK D RESET_B VGND VNB VPB VPWR Q
.ends

* Black-box entry subcircuit for sky130_fd_sc_hd__and2b_2 abstract view
.subckt sky130_fd_sc_hd__and2b_2 A_N B VGND VNB VPB VPWR X
.ends

* Black-box entry subcircuit for sky130_fd_sc_hd__nor2_2 abstract view
.subckt sky130_fd_sc_hd__nor2_2 A B VGND VNB VPB VPWR Y
.ends

.subckt SSS AN[0] AN[1] AN[2] AN[3] AN[4] AN[5] AN[6] AN[7] BTNC BTND BTNL BTNR BTNU
+ CA CB CC CD CE CF CG CLK CPU_RESETN DP LED16_B LED16_G LED16_R LED[0] LED[10] LED[11]
+ LED[12] LED[13] LED[14] LED[15] LED[1] LED[2] LED[3] LED[4] LED[5] LED[6] LED[7]
+ LED[8] LED[9] SW[0] SW[10] SW[11] SW[12] SW[13] SW[14] SW[15] SW[1] SW[2] SW[3]
+ SW[4] SW[5] SW[6] SW[7] SW[8] SW[9] VGND VPWR
XTAP_TAPCELL_ROW_32_194 VGND VPWR sky130_fd_sc_hd__tapvpwrvgnd_1
XPHY_EDGE_ROW_37_Left_75 VGND VGND VPWR VPWR sky130_fd_sc_hd__decap_3
XFILLER_26_85 VGND VGND VPWR VPWR sky130_fd_sc_hd__decap_3
XTAP_TAPCELL_ROW_23_161 VGND VPWR sky130_fd_sc_hd__tapvpwrvgnd_1
X_501_ CLK_counter\[17\] CLK_counter\[16\] VGND VGND VPWR VPWR _204_ sky130_fd_sc_hd__and2_1
XPHY_EDGE_ROW_21_Left_59 VGND VGND VPWR VPWR sky130_fd_sc_hd__decap_3
XFILLER_13_144 VGND VGND VPWR VPWR sky130_fd_sc_hd__decap_8
XFILLER_13_122 VPWR VGND VPWR VGND sky130_ef_sc_hd__decap_12
X_432_ _109_ _152_ VGND VGND VPWR VPWR _153_ sky130_fd_sc_hd__nand2_2
X_363_ net60 net59 VGND VGND VPWR VPWR _089_ sky130_fd_sc_hd__nand2b_1
XFILLER_9_159 VGND VGND VPWR VPWR sky130_fd_sc_hd__fill_1
XFILLER_9_137 VGND VGND VPWR VPWR sky130_fd_sc_hd__decap_6
XFILLER_27_203 VPWR VGND VPWR VGND sky130_ef_sc_hd__decap_12
XFILLER_8_170 VPWR VGND VPWR VGND sky130_ef_sc_hd__decap_12
XFILLER_33_217 VGND VGND VPWR VPWR sky130_fd_sc_hd__decap_4
X_415_ CLK2_counter\[5\] CLK2_counter\[12\] CLK2_counter\[11\] CLK2_counter\[13\]
+ VGND VGND VPWR VPWR _137_ sky130_fd_sc_hd__or4b_1
XFILLER_6_129 VGND VGND VPWR VPWR sky130_fd_sc_hd__decap_3
XTAP_TAPCELL_ROW_34_201 VGND VPWR sky130_fd_sc_hd__tapvpwrvgnd_1
XFILLER_24_217 VGND VGND VPWR VPWR sky130_fd_sc_hd__fill_1
XTAP_TAPCELL_ROW_11_120 VGND VPWR sky130_fd_sc_hd__tapvpwrvgnd_1
XFILLER_5_162 VGND VGND VPWR VPWR sky130_fd_sc_hd__decap_6
XFILLER_30_209 VGND VGND VPWR VPWR sky130_fd_sc_hd__decap_8
XPHY_EDGE_ROW_24_Left_62 VGND VGND VPWR VPWR sky130_fd_sc_hd__decap_3
XFILLER_0_57 VPWR VGND VPWR VGND sky130_ef_sc_hd__decap_12
XFILLER_34_85 VPWR VGND VPWR VGND sky130_ef_sc_hd__decap_12
XFILLER_34_41 VPWR VGND VPWR VGND sky130_ef_sc_hd__decap_12
X_680_ CLK2_counter\[20\] _312_ _316_ CLK2_counter\[21\] VGND VGND VPWR VPWR _319_
+ sky130_fd_sc_hd__a31o_1
XFILLER_18_42 VPWR VGND VPWR VGND sky130_ef_sc_hd__decap_12
X_801_ clknet_3_6__leaf_CLK _021_ net69 VGND VGND VPWR VPWR CLK_counter\[29\] sky130_fd_sc_hd__dfrtp_1
X_663_ _307_ net52 _306_ VGND VGND VPWR VPWR _047_ sky130_fd_sc_hd__and3b_1
XFILLER_20_65 VGND VGND VPWR VPWR sky130_fd_sc_hd__decap_6
X_594_ _153_ _269_ _155_ VGND VGND VPWR VPWR _270_ sky130_fd_sc_hd__o21ai_1
X_732_ net11 net81 _349_ VGND VGND VPWR VPWR _074_ sky130_fd_sc_hd__mux2_1
XFILLER_34_197 VPWR VGND VPWR VGND sky130_ef_sc_hd__decap_12
XFILLER_34_153 VPWR VGND VPWR VGND sky130_ef_sc_hd__decap_12
XFILLER_25_186 VPWR VGND VPWR VGND sky130_ef_sc_hd__decap_12
XFILLER_31_167 VGND VGND VPWR VPWR sky130_fd_sc_hd__fill_1
Xoutput31 net31 VGND VGND VPWR VPWR LED[0] sky130_fd_sc_hd__buf_2
XTAP_TAPCELL_ROW_26_170 VGND VPWR sky130_fd_sc_hd__tapvpwrvgnd_1
X_646_ CLK2_counter\[7\] CLK2_counter\[10\] _099_ _289_ VGND VGND VPWR VPWR _296_
+ sky130_fd_sc_hd__and4_1
XFILLER_16_120 VGND VGND VPWR VPWR sky130_fd_sc_hd__decap_3
Xoutput42 net42 VGND VGND VPWR VPWR LED[5] sky130_fd_sc_hd__buf_2
X_715_ attempt_count\[0\] net1 net57 VGND VGND VPWR VPWR _343_ sky130_fd_sc_hd__and3_1
X_577_ _080_ CLK2_counter\[8\] _134_ _153_ VGND VGND VPWR VPWR _257_ sky130_fd_sc_hd__or4_1
Xoutput20 net20 VGND VGND VPWR VPWR AN[6] sky130_fd_sc_hd__buf_2
XFILLER_22_112 VGND VGND VPWR VPWR sky130_fd_sc_hd__fill_1
XTAP_TAPCELL_ROW_23_162 VGND VPWR sky130_fd_sc_hd__tapvpwrvgnd_1
X_500_ CLK_counter\[16\] _201_ CLK_counter\[17\] VGND VGND VPWR VPWR _203_ sky130_fd_sc_hd__a21oi_1
XFILLER_13_134 VGND VGND VPWR VPWR sky130_fd_sc_hd__decap_4
X_431_ _149_ _151_ _098_ VGND VGND VPWR VPWR _152_ sky130_fd_sc_hd__a21oi_1
X_362_ net59 net58 VGND VGND VPWR VPWR _088_ sky130_fd_sc_hd__nand2_1
XFILLER_27_215 VGND VGND VPWR VPWR sky130_fd_sc_hd__fill_2
X_629_ CLK2_counter\[4\] _283_ VGND VGND VPWR VPWR _285_ sky130_fd_sc_hd__and2_1
XFILLER_8_182 VPWR VGND VPWR VGND sky130_ef_sc_hd__decap_12
XFILLER_37_85 VPWR VGND VPWR VGND sky130_ef_sc_hd__decap_12
XTAP_TAPCELL_ROW_37_210 VGND VPWR sky130_fd_sc_hd__tapvpwrvgnd_1
XFILLER_37_41 VPWR VGND VPWR VGND sky130_ef_sc_hd__decap_12
XFILLER_12_66 VGND VGND VPWR VPWR sky130_fd_sc_hd__decap_4
XFILLER_12_11 VGND VGND VPWR VPWR sky130_fd_sc_hd__fill_1
X_414_ CLK2_counter\[3\] CLK2_counter\[6\] CLK2_counter\[7\] CLK2_counter\[4\] VGND
+ VGND VPWR VPWR _136_ sky130_fd_sc_hd__or4b_1
XPHY_EDGE_ROW_21_Right_21 VGND VGND VPWR VPWR sky130_fd_sc_hd__decap_3
XPHY_EDGE_ROW_12_Right_12 VGND VGND VPWR VPWR sky130_fd_sc_hd__decap_3
XPHY_EDGE_ROW_30_Right_30 VGND VGND VPWR VPWR sky130_fd_sc_hd__decap_3
XFILLER_0_69 VGND VGND VPWR VPWR sky130_fd_sc_hd__decap_4
XFILLER_34_97 VPWR VGND VPWR VGND sky130_ef_sc_hd__decap_12
XFILLER_34_53 VPWR VGND VPWR VGND sky130_ef_sc_hd__decap_12
XFILLER_18_54 VGND VGND VPWR VPWR sky130_fd_sc_hd__decap_8
XFILLER_15_7 VGND VGND VPWR VPWR sky130_fd_sc_hd__decap_4
X_800_ clknet_3_3__leaf_CLK _020_ net70 VGND VGND VPWR VPWR CLK_counter\[28\] sky130_fd_sc_hd__dfrtp_1
X_662_ CLK2_counter\[15\] CLK2_counter\[14\] _303_ VGND VGND VPWR VPWR _307_ sky130_fd_sc_hd__and3_1
XFILLER_20_44 VGND VGND VPWR VPWR sky130_fd_sc_hd__fill_1
Xhold20 CLK_counter\[10\] VGND VGND VPWR VPWR net97 sky130_fd_sc_hd__dlygate4sd3_1
X_731_ net10 password\[4\] _349_ VGND VGND VPWR VPWR _073_ sky130_fd_sc_hd__mux2_1
XFILLER_34_121 VPWR VGND VPWR VGND sky130_ef_sc_hd__decap_12
X_593_ CLK2_counter\[10\] CLK2_counter\[9\] VGND VGND VPWR VPWR _269_ sky130_fd_sc_hd__nor2_1
XFILLER_34_165 VPWR VGND VPWR VGND sky130_ef_sc_hd__decap_12
XFILLER_25_198 VPWR VGND VPWR VGND sky130_ef_sc_hd__decap_12
XFILLER_25_132 VGND VGND VPWR VPWR sky130_fd_sc_hd__fill_1
XFILLER_25_121 VGND VGND VPWR VPWR sky130_fd_sc_hd__decap_3
XFILLER_15_22 VGND VGND VPWR VPWR sky130_fd_sc_hd__fill_2
XPHY_EDGE_ROW_6_Right_6 VGND VGND VPWR VPWR sky130_fd_sc_hd__decap_3
X_714_ net51 _341_ _342_ VGND VGND VPWR VPWR _063_ sky130_fd_sc_hd__and3_1
XFILLER_31_21 VGND VGND VPWR VPWR sky130_fd_sc_hd__fill_1
XTAP_TAPCELL_ROW_26_171 VGND VPWR sky130_fd_sc_hd__tapvpwrvgnd_1
Xoutput32 net32 VGND VGND VPWR VPWR LED[10] sky130_fd_sc_hd__buf_2
Xoutput43 net43 VGND VGND VPWR VPWR LED[6] sky130_fd_sc_hd__buf_2
X_645_ _295_ net47 _294_ VGND VGND VPWR VPWR _041_ sky130_fd_sc_hd__and3b_1
Xoutput21 net21 VGND VGND VPWR VPWR AN[7] sky130_fd_sc_hd__buf_2
X_576_ _243_ _246_ _248_ VGND VGND VPWR VPWR _256_ sky130_fd_sc_hd__and3_1
XFILLER_22_157 VGND VGND VPWR VPWR sky130_fd_sc_hd__fill_1
X_430_ _101_ _103_ _150_ VGND VGND VPWR VPWR _151_ sky130_fd_sc_hd__or3_1
XFILLER_13_113 VGND VGND VPWR VPWR sky130_fd_sc_hd__decap_4
X_361_ net13 VGND VGND VPWR VPWR _087_ sky130_fd_sc_hd__inv_2
X_628_ CLK2_counter\[4\] _283_ VGND VGND VPWR VPWR _284_ sky130_fd_sc_hd__or2_1
XTAP_TAPCELL_ROW_14_130 VGND VPWR sky130_fd_sc_hd__tapvpwrvgnd_1
X_559_ _078_ _123_ _241_ net15 VGND VGND VPWR VPWR net16 sky130_fd_sc_hd__o31a_1
XFILLER_3_36 VGND VGND VPWR VPWR sky130_fd_sc_hd__fill_1
XTAP_TAPCELL_ROW_3_90 VGND VPWR sky130_fd_sc_hd__tapvpwrvgnd_1
XFILLER_8_194 VGND VGND VPWR VPWR sky130_fd_sc_hd__fill_2
XTAP_TAPCELL_ROW_37_211 VGND VPWR sky130_fd_sc_hd__tapvpwrvgnd_1
XFILLER_37_97 VPWR VGND VPWR VGND sky130_ef_sc_hd__decap_12
XFILLER_37_53 VGND VGND VPWR VPWR sky130_fd_sc_hd__decap_3
XFILLER_18_205 VGND VGND VPWR VPWR sky130_fd_sc_hd__fill_2
X_413_ _100_ _134_ VGND VGND VPWR VPWR _135_ sky130_fd_sc_hd__or2_1
XFILLER_23_55 VGND VGND VPWR VPWR sky130_fd_sc_hd__fill_1
XFILLER_0_15 VPWR VGND VPWR VGND sky130_ef_sc_hd__decap_12
XFILLER_2_123 VGND VGND VPWR VPWR sky130_fd_sc_hd__fill_2
XFILLER_3_3 VGND VGND VPWR VPWR sky130_fd_sc_hd__decap_8
XFILLER_9_35 VGND VGND VPWR VPWR sky130_fd_sc_hd__fill_1
XFILLER_36_3 VPWR VGND VPWR VGND sky130_ef_sc_hd__decap_12
XTAP_TAPCELL_ROW_0_80 VGND VPWR sky130_fd_sc_hd__tapvpwrvgnd_1
XFILLER_9_57 VGND VGND VPWR VPWR sky130_fd_sc_hd__decap_8
XFILLER_34_65 VPWR VGND VPWR VGND sky130_ef_sc_hd__decap_12
XFILLER_18_88 VPWR VGND VPWR VGND sky130_ef_sc_hd__decap_12
XFILLER_37_141 VPWR VGND VPWR VGND sky130_ef_sc_hd__decap_12
XFILLER_28_141 VGND VGND VPWR VPWR sky130_fd_sc_hd__decap_6
Xhold10 CLK2_counter\[29\] VGND VGND VPWR VPWR net87 sky130_fd_sc_hd__dlygate4sd3_1
X_661_ CLK2_counter\[14\] _303_ CLK2_counter\[15\] VGND VGND VPWR VPWR _306_ sky130_fd_sc_hd__a21o_1
Xhold21 attempt_count\[0\] VGND VGND VPWR VPWR net98 sky130_fd_sc_hd__dlygate4sd3_1
X_730_ net9 password\[3\] _349_ VGND VGND VPWR VPWR _072_ sky130_fd_sc_hd__mux2_1
X_592_ _263_ _266_ _268_ VGND VGND VPWR VPWR net23 sky130_fd_sc_hd__and3_1
XFILLER_34_177 VPWR VGND VPWR VGND sky130_ef_sc_hd__decap_12
XFILLER_34_133 VGND VGND VPWR VPWR sky130_fd_sc_hd__decap_6
Xoutput44 net44 VGND VGND VPWR VPWR LED[7] sky130_fd_sc_hd__buf_2
X_713_ CLK2_counter\[31\] CLK2_counter\[30\] _334_ _337_ VGND VGND VPWR VPWR _342_
+ sky130_fd_sc_hd__nand4_1
Xoutput33 net33 VGND VGND VPWR VPWR LED[11] sky130_fd_sc_hd__buf_2
Xoutput22 net22 VGND VGND VPWR VPWR CA sky130_fd_sc_hd__buf_2
X_644_ CLK2_counter\[7\] _099_ _289_ VGND VGND VPWR VPWR _295_ sky130_fd_sc_hd__and3_1
X_575_ _135_ _153_ _252_ _255_ VGND VGND VPWR VPWR net27 sky130_fd_sc_hd__o211a_1
XTAP_TAPCELL_ROW_26_172 VGND VPWR sky130_fd_sc_hd__tapvpwrvgnd_1
XFILLER_26_77 VGND VGND VPWR VPWR sky130_fd_sc_hd__decap_6
X_360_ net12 VGND VGND VPWR VPWR _086_ sky130_fd_sc_hd__inv_2
X_489_ CLK_counter\[13\] CLK_counter\[12\] _192_ VGND VGND VPWR VPWR _196_ sky130_fd_sc_hd__and3_1
XTAP_TAPCELL_ROW_14_131 VGND VPWR sky130_fd_sc_hd__tapvpwrvgnd_1
X_627_ _282_ _283_ VGND VGND VPWR VPWR _035_ sky130_fd_sc_hd__nor2_1
Xclkbuf_3_4__f_CLK clknet_0_CLK VGND VGND VPWR VPWR clknet_3_4__leaf_CLK sky130_fd_sc_hd__clkbuf_16
X_558_ net64 _079_ VGND VGND VPWR VPWR _241_ sky130_fd_sc_hd__or2_1
XTAP_TAPCELL_ROW_37_212 VGND VPWR sky130_fd_sc_hd__tapvpwrvgnd_1
XTAP_TAPCELL_ROW_3_91 VGND VPWR sky130_fd_sc_hd__tapvpwrvgnd_1
X_412_ CLK2_counter\[10\] _133_ VGND VGND VPWR VPWR _134_ sky130_fd_sc_hd__nand2_1
XFILLER_5_121 VGND VGND VPWR VPWR sky130_fd_sc_hd__decap_8
XFILLER_5_198 VGND VGND VPWR VPWR sky130_fd_sc_hd__fill_2
XFILLER_24_209 VGND VGND VPWR VPWR sky130_fd_sc_hd__decap_8
XFILLER_0_27 VGND VGND VPWR VPWR sky130_fd_sc_hd__fill_1
XFILLER_2_135 VGND VGND VPWR VPWR sky130_fd_sc_hd__decap_4
XFILLER_29_3 VPWR VGND VPWR VGND sky130_ef_sc_hd__decap_12
XTAP_TAPCELL_ROW_0_81 VGND VPWR sky130_fd_sc_hd__tapvpwrvgnd_1
XFILLER_34_77 VGND VGND VPWR VPWR sky130_fd_sc_hd__decap_6
XPHY_EDGE_ROW_28_Left_66 VGND VGND VPWR VPWR sky130_fd_sc_hd__decap_3
XFILLER_37_197 VPWR VGND VPWR VGND sky130_ef_sc_hd__decap_12
XFILLER_37_153 VPWR VGND VPWR VGND sky130_ef_sc_hd__decap_12
XFILLER_28_197 VPWR VGND VPWR VGND sky130_ef_sc_hd__decap_12
X_660_ _304_ _305_ net52 VGND VGND VPWR VPWR _046_ sky130_fd_sc_hd__and3b_1
Xhold11 CLK_counter\[11\] VGND VGND VPWR VPWR net88 sky130_fd_sc_hd__dlygate4sd3_1
X_591_ net64 _242_ _267_ net62 VGND VGND VPWR VPWR _268_ sky130_fd_sc_hd__o22a_1
XFILLER_34_189 VGND VGND VPWR VPWR sky130_fd_sc_hd__decap_6
XTAP_TAPCELL_ROW_29_181 VGND VPWR sky130_fd_sc_hd__tapvpwrvgnd_1
X_789_ clknet_3_2__leaf_CLK _008_ net68 VGND VGND VPWR VPWR CLK_counter\[17\] sky130_fd_sc_hd__dfrtp_1
X_712_ CLK2_counter\[30\] _334_ _337_ CLK2_counter\[31\] VGND VGND VPWR VPWR _341_
+ sky130_fd_sc_hd__a31o_1
Xoutput34 net34 VGND VGND VPWR VPWR LED[12] sky130_fd_sc_hd__buf_2
Xoutput23 net23 VGND VGND VPWR VPWR CB sky130_fd_sc_hd__buf_2
Xoutput45 net45 VGND VGND VPWR VPWR LED[8] sky130_fd_sc_hd__buf_2
XTAP_TAPCELL_ROW_26_173 VGND VPWR sky130_fd_sc_hd__tapvpwrvgnd_1
X_643_ _080_ _293_ VGND VGND VPWR VPWR _294_ sky130_fd_sc_hd__nand2_1
XFILLER_11_3 VGND VGND VPWR VPWR sky130_fd_sc_hd__fill_2
X_574_ _244_ _253_ _254_ VGND VGND VPWR VPWR _255_ sky130_fd_sc_hd__and3_1
XTAP_TAPCELL_ROW_17_140 VGND VPWR sky130_fd_sc_hd__tapvpwrvgnd_1
XPHY_EDGE_ROW_15_Left_53 VGND VGND VPWR VPWR sky130_fd_sc_hd__decap_3
XFILLER_13_104 VGND VGND VPWR VPWR sky130_fd_sc_hd__fill_1
X_488_ _194_ _195_ VGND VGND VPWR VPWR _003_ sky130_fd_sc_hd__nor2_1
X_626_ CLK2_counter\[3\] net56 _169_ _279_ VGND VGND VPWR VPWR _283_ sky130_fd_sc_hd__and4_1
X_557_ net58 _233_ _240_ VGND VGND VPWR VPWR net17 sky130_fd_sc_hd__or3_1
XTAP_TAPCELL_ROW_37_213 VGND VPWR sky130_fd_sc_hd__tapvpwrvgnd_1
XFILLER_12_170 VGND VGND VPWR VPWR sky130_fd_sc_hd__decap_8
XTAP_TAPCELL_ROW_3_92 VGND VPWR sky130_fd_sc_hd__tapvpwrvgnd_1
X_411_ net58 _089_ VGND VGND VPWR VPWR _133_ sky130_fd_sc_hd__nor2_1
XPHY_EDGE_ROW_0_Left_38 VGND VGND VPWR VPWR sky130_fd_sc_hd__decap_3
X_609_ attempt_count\[4\] attempt_count\[0\] attempt_count\[1\] attempt_count\[2\]
+ VGND VGND VPWR VPWR _277_ sky130_fd_sc_hd__or4_1
XTAP_TAPCELL_ROW_0_82 VGND VPWR sky130_fd_sc_hd__tapvpwrvgnd_1
XFILLER_9_15 VPWR VGND VPWR VGND sky130_ef_sc_hd__decap_12
XFILLER_18_24 VGND VGND VPWR VPWR sky130_fd_sc_hd__decap_4
Xclkload0 clknet_3_0__leaf_CLK VGND VGND VPWR VPWR clkload0/X sky130_fd_sc_hd__clkbuf_4
XPHY_EDGE_ROW_3_Left_41 VGND VGND VPWR VPWR sky130_fd_sc_hd__decap_3
XFILLER_37_165 VGND VGND VPWR VPWR sky130_fd_sc_hd__decap_3
XFILLER_28_154 VPWR VGND VPWR VGND sky130_ef_sc_hd__decap_12
X_590_ _122_ _249_ _250_ _092_ VGND VGND VPWR VPWR _267_ sky130_fd_sc_hd__a22oi_1
Xhold12 CLK_counter\[7\] VGND VGND VPWR VPWR net89 sky130_fd_sc_hd__dlygate4sd3_1
XTAP_TAPCELL_ROW_29_182 VGND VPWR sky130_fd_sc_hd__tapvpwrvgnd_1
X_788_ clknet_3_2__leaf_CLK _007_ net68 VGND VGND VPWR VPWR CLK_counter\[16\] sky130_fd_sc_hd__dfrtp_1
XFILLER_31_68 VPWR VGND VPWR VGND sky130_ef_sc_hd__decap_12
XFILLER_31_57 VGND VGND VPWR VPWR sky130_fd_sc_hd__fill_2
XFILLER_25_113 VGND VGND VPWR VPWR sky130_fd_sc_hd__decap_8
Xoutput35 net35 VGND VGND VPWR VPWR LED[13] sky130_fd_sc_hd__buf_2
Xoutput24 net24 VGND VGND VPWR VPWR CC sky130_fd_sc_hd__buf_2
Xoutput46 net46 VGND VGND VPWR VPWR LED[9] sky130_fd_sc_hd__buf_2
X_711_ _340_ net49 _339_ VGND VGND VPWR VPWR _062_ sky130_fd_sc_hd__and3b_1
XPHY_EDGE_ROW_28_Right_28 VGND VGND VPWR VPWR sky130_fd_sc_hd__decap_3
XPHY_EDGE_ROW_19_Right_19 VGND VGND VPWR VPWR sky130_fd_sc_hd__decap_3
XFILLER_16_146 VGND VGND VPWR VPWR sky130_fd_sc_hd__fill_2
X_642_ net48 _292_ _293_ VGND VGND VPWR VPWR _040_ sky130_fd_sc_hd__and3_1
X_573_ net62 _241_ _123_ VGND VGND VPWR VPWR _254_ sky130_fd_sc_hd__a21o_1
XPHY_EDGE_ROW_37_Right_37 VGND VGND VPWR VPWR sky130_fd_sc_hd__decap_3
XFILLER_22_149 VGND VGND VPWR VPWR sky130_fd_sc_hd__decap_8
XTAP_TAPCELL_ROW_17_141 VGND VPWR sky130_fd_sc_hd__tapvpwrvgnd_1
XFILLER_13_138 VGND VGND VPWR VPWR sky130_fd_sc_hd__fill_1
X_625_ CLK2_counter\[3\] _280_ net48 VGND VGND VPWR VPWR _282_ sky130_fd_sc_hd__o21ai_1
XTAP_TAPCELL_ROW_37_214 VGND VPWR sky130_fd_sc_hd__tapvpwrvgnd_1
XPHY_EDGE_ROW_32_Left_70 VGND VGND VPWR VPWR sky130_fd_sc_hd__decap_3
X_487_ CLK_counter\[12\] _192_ net47 VGND VGND VPWR VPWR _195_ sky130_fd_sc_hd__o21ai_1
XFILLER_12_182 VPWR VGND VPWR VGND sky130_ef_sc_hd__decap_12
X_556_ net62 _106_ net59 VGND VGND VPWR VPWR _240_ sky130_fd_sc_hd__a21oi_1
XFILLER_12_26 VGND VGND VPWR VPWR sky130_fd_sc_hd__fill_2
X_410_ _111_ _132_ _088_ _089_ VGND VGND VPWR VPWR next_state\[1\] sky130_fd_sc_hd__or4bb_1
X_539_ net91 _227_ net50 VGND VGND VPWR VPWR _229_ sky130_fd_sc_hd__o21ai_1
X_608_ attempt_count\[4\] attempt_count\[1\] net61 _273_ VGND VGND VPWR VPWR net43
+ sky130_fd_sc_hd__o31ai_1
XFILLER_23_211 VGND VGND VPWR VPWR sky130_fd_sc_hd__decap_8
XFILLER_4_71 VPWR VGND VPWR VGND sky130_ef_sc_hd__decap_12
Xfanout70 net75 VGND VGND VPWR VPWR net70 sky130_fd_sc_hd__clkbuf_2
XFILLER_14_200 VGND VGND VPWR VPWR sky130_fd_sc_hd__decap_8
XFILLER_0_29 VPWR VGND VPWR VGND sky130_ef_sc_hd__decap_12
XFILLER_9_27 VGND VGND VPWR VPWR sky130_fd_sc_hd__decap_4
Xclkload1 clknet_3_1__leaf_CLK VGND VGND VPWR VPWR clkload1/Y sky130_fd_sc_hd__clkinv_4
XFILLER_1_3 VGND VGND VPWR VPWR sky130_fd_sc_hd__decap_6
XFILLER_34_3 VPWR VGND VPWR VGND sky130_ef_sc_hd__decap_12
XFILLER_29_57 VGND VGND VPWR VPWR sky130_fd_sc_hd__fill_2
XFILLER_28_166 VGND VGND VPWR VPWR sky130_fd_sc_hd__decap_3
Xhold13 password\[1\] VGND VGND VPWR VPWR net90 sky130_fd_sc_hd__dlygate4sd3_1
XTAP_TAPCELL_ROW_29_183 VGND VPWR sky130_fd_sc_hd__tapvpwrvgnd_1
XFILLER_19_177 VGND VGND VPWR VPWR sky130_fd_sc_hd__fill_2
X_787_ clknet_3_0__leaf_CLK _006_ net66 VGND VGND VPWR VPWR CLK_counter\[15\] sky130_fd_sc_hd__dfrtp_1
XFILLER_6_39 VGND VGND VPWR VPWR sky130_fd_sc_hd__decap_4
X_710_ CLK2_counter\[30\] _334_ _337_ VGND VGND VPWR VPWR _340_ sky130_fd_sc_hd__and3_1
Xoutput14 net14 VGND VGND VPWR VPWR AN[0] sky130_fd_sc_hd__buf_2
Xoutput36 net36 VGND VGND VPWR VPWR LED[14] sky130_fd_sc_hd__buf_2
X_641_ CLK2_counter\[8\] _291_ VGND VGND VPWR VPWR _293_ sky130_fd_sc_hd__nand2_1
Xoutput25 net25 VGND VGND VPWR VPWR CD sky130_fd_sc_hd__buf_2
X_572_ net63 net64 _093_ VGND VGND VPWR VPWR _253_ sky130_fd_sc_hd__or3_1
XFILLER_30_194 VGND VGND VPWR VPWR sky130_fd_sc_hd__fill_2
XFILLER_22_139 VGND VGND VPWR VPWR sky130_fd_sc_hd__fill_1
XFILLER_22_106 VGND VGND VPWR VPWR sky130_fd_sc_hd__decap_6
XFILLER_7_93 VGND VGND VPWR VPWR sky130_fd_sc_hd__fill_2
XFILLER_26_58 VGND VGND VPWR VPWR sky130_fd_sc_hd__fill_1
XTAP_TAPCELL_ROW_8_110 VGND VPWR sky130_fd_sc_hd__tapvpwrvgnd_1
XFILLER_36_209 VPWR VGND VPWR VGND sky130_ef_sc_hd__decap_12
X_486_ CLK_counter\[12\] _192_ VGND VGND VPWR VPWR _194_ sky130_fd_sc_hd__and2_1
XFILLER_12_194 VGND VGND VPWR VPWR sky130_fd_sc_hd__fill_2
X_624_ _280_ _281_ net48 VGND VGND VPWR VPWR _034_ sky130_fd_sc_hd__and3b_1
X_555_ _233_ _239_ VGND VGND VPWR VPWR net18 sky130_fd_sc_hd__or2_1
XTAP_TAPCELL_ROW_37_215 VGND VPWR sky130_fd_sc_hd__tapvpwrvgnd_1
XFILLER_37_57 VPWR VGND VPWR VGND sky130_ef_sc_hd__decap_12
X_538_ CLK_counter\[29\] CLK_counter\[30\] _225_ VGND VGND VPWR VPWR _228_ sky130_fd_sc_hd__and3_1
X_607_ net45 _274_ net41 VGND VGND VPWR VPWR net42 sky130_fd_sc_hd__o21a_1
XFILLER_5_113 VGND VGND VPWR VPWR sky130_fd_sc_hd__fill_1
XFILLER_5_135 VGND VGND VPWR VPWR sky130_fd_sc_hd__decap_6
XFILLER_23_37 VPWR VGND VPWR VGND sky130_ef_sc_hd__decap_12
XFILLER_23_15 VPWR VGND VPWR VGND sky130_ef_sc_hd__decap_12
XFILLER_4_83 VGND VGND VPWR VPWR sky130_fd_sc_hd__fill_1
X_469_ _181_ _182_ _171_ VGND VGND VPWR VPWR _028_ sky130_fd_sc_hd__and3b_1
Xfanout71 net72 VGND VGND VPWR VPWR net71 sky130_fd_sc_hd__clkbuf_4
Xfanout60 state\[0\] VGND VGND VPWR VPWR net60 sky130_fd_sc_hd__clkbuf_2
Xclkload2 clknet_3_3__leaf_CLK VGND VGND VPWR VPWR clkload2/Y sky130_fd_sc_hd__clkinvlp_4
XFILLER_18_37 VGND VGND VPWR VPWR sky130_fd_sc_hd__fill_1
XFILLER_27_3 VGND VGND VPWR VPWR sky130_fd_sc_hd__decap_3
XFILLER_24_80 VGND VGND VPWR VPWR sky130_fd_sc_hd__decap_4
Xhold14 CLK_counter\[30\] VGND VGND VPWR VPWR net91 sky130_fd_sc_hd__dlygate4sd3_1
XFILLER_1_95 VGND VGND VPWR VPWR sky130_fd_sc_hd__fill_2
XFILLER_19_145 VGND VGND VPWR VPWR sky130_fd_sc_hd__decap_3
X_786_ clknet_3_3__leaf_CLK _005_ net66 VGND VGND VPWR VPWR CLK_counter\[14\] sky130_fd_sc_hd__dfrtp_1